/*---------------------------------------------------------------------------*\
| =========                 |                                                 |
| \\      /  F ield         | OpenFOAM: The Open Source CFD Toolbox           |
|  \\    /   O peration     | Version:  5.0                                   |
|   \\  /    A nd           | Web:      www.OpenFOAM.org                      |
|    \\/     M anipulation  |                                                 |
\*---------------------------------------------------------------------------*/
Build  : 5.0
Exec   : interFoam
Date   : Aug 31 2018
Time   : 11:00:18
Host   : "n-62-27-20"
PID    : 101124
I/O    : uncollated
Case   : /zhome/86/4/51673/OpenFOAM/bjelt-5.0/src/TurbulenceModels/turbulenceModels/RANS_stableOF50/Tutorials/kEpsilonStab
nProcs : 1
sigFpe : Enabling floating point exception trapping (FOAM_SIGFPE).
fileModificationChecking : Monitoring run-time modified files using timeStampMaster (fileModificationSkew 10)
allowSystemOperations : Allowing user-supplied system call operations

// * * * * * * * * * * * * * * * * * * * * * * * * * * * * * * * * * * * * * //
Create time

Create mesh for time = 20

// using new solver syntax:
UFinal
{
    solver          PBiCG;
    preconditioner  DILU;
    tolerance       1e-06;
    relTol          0;
}


PIMPLE: Operating solver in PISO mode

Reading field p_rgh

Reading field U

Reading/calculating face flux field phi

Reading transportProperties

Selecting incompressible transport model Newtonian
Selecting incompressible transport model Newtonian
Selecting turbulence model type RAS
Selecting RAS turbulence model kEpsilonStab
kEpsilonStabCoeffs
{
    lambda2         0.05;
    Cmu             0.09;
    C1              1.44;
    C2              1.92;
    C3              0;
    sigmak          1;
    sigmaEps        1.3;
    alphaBS         1.36;
}


Reading g

Reading hRef
Calculating field g.h

No MRF models present

No finite volume options present

DICPCG:  Solving for pcorr, Initial residual = 1, Final residual = 7.90205e-11, No Iterations 270
time step continuity errors : sum local = 1.92507e-18, global = 3.70222e-21, cumulative = 3.70222e-21
Courant Number mean: 0.0159031 max: 0.0497044

Starting time loop

End

